This is a new test file from Sarah branch,
New line.


Sarah line.