New file to play with. - Master
New line. - Sarah
Line. - Sarah
Line. - Sarah