New file to play with. - Master
New line. - Sarah