New file to play with. - Master  (Master 1)
New line. - Sarah