This is a test commit from main.
New line.
New new line.
Master line.