This is a test commit from main.
New line.